Version 4
SHEET 1 1768 680
WIRE 400 -144 320 -144
WIRE 608 -144 400 -144
WIRE 320 -112 320 -144
WIRE 400 -112 400 -144
WIRE 864 -32 816 -32
WIRE 144 0 0 0
WIRE 304 0 224 0
WIRE 400 0 400 -32
WIRE 432 0 400 0
WIRE 528 0 512 0
WIRE 608 0 608 -144
WIRE 864 0 864 -32
WIRE 816 16 816 -32
WIRE 0 32 0 0
WIRE 400 32 400 0
WIRE 304 48 304 0
WIRE 528 48 528 0
WIRE 880 48 688 48
WIRE 880 80 880 48
WIRE 880 80 768 80
WIRE 816 144 816 96
WIRE 304 160 304 128
WIRE 400 160 400 112
WIRE 400 160 304 160
WIRE 528 160 528 128
WIRE 528 160 400 160
WIRE 608 160 608 48
WIRE 608 160 528 160
WIRE 704 160 704 80
WIRE 704 160 608 160
WIRE 784 160 704 160
WIRE 880 176 880 80
WIRE 880 176 848 176
WIRE 1296 176 880 176
WIRE 784 192 672 192
WIRE 672 240 672 192
WIRE 816 240 816 208
WIRE 816 352 816 320
FLAG 1296 176 vout
IOPIN 1296 176 Out
FLAG 816 352 0
FLAG 864 0 0
FLAG 0 32 0
FLAG 672 240 0
FLAG 320 -112 0
SYMBOL voltage 240 0 R90
WINDOW 3 24 152 Left 2
WINDOW 123 24 124 Left 2
WINDOW 39 0 0 Left 0
SYMATTR Value SINE(0 2.5 1000)
SYMATTR Value2 AC 2.5
SYMATTR InstName V1
SYMBOL res 544 144 R180
WINDOW 0 36 76 Left 2
WINDOW 3 36 40 Left 2
SYMATTR InstName R2
SYMATTR Value 100k
SYMBOL res 704 32 R90
WINDOW 0 0 56 VBottom 2
WINDOW 3 32 56 VTop 2
SYMATTR InstName R3
SYMATTR Value 15k
SYMBOL voltage 816 112 R180
WINDOW 123 0 0 Left 0
WINDOW 39 0 0 Left 0
SYMATTR InstName V3
SYMATTR Value 12
SYMBOL voltage 816 336 R180
WINDOW 0 24 96 Left 2
WINDOW 3 24 16 Left 2
WINDOW 123 0 0 Left 0
WINDOW 39 0 0 Left 0
SYMATTR InstName V4
SYMATTR Value 12
SYMBOL Opamps\\ADA4661-2 816 112 R0
SYMATTR InstName U3
SYMBOL cap 768 64 R90
WINDOW 0 0 32 VBottom 2
WINDOW 3 32 32 VTop 2
SYMATTR InstName C3
SYMATTR Value 1n
SYMBOL res 288 32 R0
SYMATTR InstName R1
SYMATTR Value 100k
SYMBOL voltage 400 -128 R0
WINDOW 123 0 0 Left 0
WINDOW 39 0 0 Left 0
SYMATTR InstName V2
SYMATTR Value 10
SYMBOL res 528 -16 R90
WINDOW 0 0 56 VBottom 2
WINDOW 3 32 56 VTop 2
SYMATTR InstName R5
SYMATTR Value {Ra}
SYMBOL res 384 16 R0
SYMATTR InstName R6
SYMATTR Value 200k
SYMBOL res 624 -16 R90
WINDOW 0 0 56 VBottom 2
WINDOW 3 32 56 VTop 2
SYMATTR InstName R4
SYMATTR Value {Rb}
TEXT 768 536 Left 2 !.ac dec 10 1 20000
TEXT 784 584 Left 2 !;tran 0.03
TEXT 1056 -128 Left 2 !.param Ra=100k*(Val/100)
TEXT 1056 -96 Left 2 !.param Rb=100k*(1-(Val/100))
TEXT 1056 -48 Left 2 !.param val=1
