Version 4
SHEET 1 1768 680
WIRE 752 48 544 48
WIRE 880 48 752 48
WIRE 544 64 544 48
WIRE 928 144 816 144
WIRE 320 160 240 160
WIRE 432 160 384 160
WIRE 544 160 544 128
WIRE 544 160 512 160
WIRE 576 160 544 160
WIRE 704 160 656 160
WIRE 784 160 704 160
WIRE 880 176 880 48
WIRE 880 176 848 176
WIRE 944 176 880 176
WIRE 1104 176 1024 176
WIRE 1200 176 1104 176
WIRE 1296 176 1200 176
WIRE 240 192 240 160
WIRE 544 192 544 160
WIRE 704 192 704 160
WIRE 752 192 752 48
WIRE 784 192 752 192
WIRE 896 208 816 208
WIRE 1104 208 1104 176
WIRE 752 224 752 192
WIRE 896 224 896 208
WIRE 960 224 896 224
WIRE 1200 256 1200 176
WIRE 1104 272 1104 256
WIRE 544 288 544 272
WIRE 704 288 704 256
WIRE 1104 304 1104 272
WIRE 1104 304 1024 304
WIRE 1024 320 1024 304
WIRE 1104 320 1104 304
WIRE 752 336 752 304
WIRE 784 336 752 336
WIRE 912 336 864 336
WIRE 960 336 960 304
WIRE 240 384 240 272
WIRE 272 384 240 384
WIRE 400 384 352 384
WIRE 896 384 896 224
WIRE 896 384 816 384
WIRE 400 400 400 384
WIRE 544 400 544 368
WIRE 672 400 624 400
WIRE 752 400 752 336
WIRE 784 400 752 400
WIRE 240 416 240 384
WIRE 912 416 912 336
WIRE 912 416 848 416
WIRE 944 416 912 416
WIRE 1104 416 1104 384
WIRE 1104 416 1024 416
WIRE 1200 416 1200 320
WIRE 1200 416 1104 416
WIRE 1280 416 1200 416
WIRE 672 432 672 400
WIRE 784 432 672 432
WIRE 928 448 928 144
WIRE 928 448 816 448
WIRE 1072 448 928 448
WIRE 544 480 544 400
WIRE 544 480 496 480
WIRE 672 480 672 432
WIRE 672 480 608 480
WIRE 1072 480 1072 448
WIRE 400 496 400 480
WIRE 496 496 496 480
WIRE 496 496 400 496
WIRE 400 512 400 496
WIRE 496 528 496 496
WIRE 1072 592 1072 560
WIRE 400 608 400 592
WIRE 448 608 400 608
WIRE 496 608 496 592
WIRE 496 608 448 608
WIRE 448 624 448 608
FLAG 240 416 0
FLAG 448 624 0
FLAG 704 288 0
FLAG 1024 320 0
FLAG 1296 176 vout-
IOPIN 1296 176 Out
FLAG 1280 416 vout+
IOPIN 1280 416 Out
FLAG 1072 592 0
FLAG 960 336 0
SYMBOL voltage 240 176 R0
WINDOW 3 24 152 Left 2
WINDOW 123 24 124 Left 2
WINDOW 39 0 0 Left 0
SYMATTR Value SINE(0 5 1000)
SYMATTR Value2 AC 5
SYMATTR InstName V1
SYMBOL polcap 384 144 R90
WINDOW 0 0 32 VBottom 2
WINDOW 3 32 32 VTop 2
SYMATTR InstName C1
SYMATTR Value 220µ
SYMATTR Description Capacitor
SYMATTR Type cap
SYMATTR SpiceLine V=25 Irms=575m Rser=0.12 Lser=0 mfg="Panasonic" pn="ECA1EFQ221L" type="Al electrolytic"
SYMBOL res 528 144 R90
WINDOW 0 0 56 VBottom 2
WINDOW 3 32 56 VTop 2
SYMATTR InstName R1
SYMATTR Value 18000
SYMBOL res 528 176 R0
SYMATTR InstName R2
SYMATTR Value 6200
SYMBOL res 672 144 R90
WINDOW 0 0 56 VBottom 2
WINDOW 3 32 56 VTop 2
SYMATTR InstName R3
SYMATTR Value 2.7k
SYMBOL cap 528 64 R0
SYMATTR InstName C2
SYMATTR Value 1n
SYMBOL res 640 384 R90
WINDOW 0 0 56 VBottom 2
WINDOW 3 32 56 VTop 2
SYMATTR InstName R4
SYMATTR Value 12.7k
SYMBOL cap 608 464 R90
WINDOW 0 0 32 VBottom 2
WINDOW 3 32 32 VTop 2
SYMATTR InstName C3
SYMATTR Value 1µ
SYMBOL polcap 480 528 R0
SYMATTR InstName C4
SYMATTR Value 100µ
SYMATTR Description Capacitor
SYMATTR Type cap
SYMATTR SpiceLine V=10 Irms=3 Rser=0.025 Lser=0 mfg="KEMET" pn="T525D107M010ATE025" type="Tantalum"
SYMBOL res 384 496 R0
SYMATTR InstName R5
SYMATTR Value 10k
SYMBOL res 384 384 R0
SYMATTR InstName R6
SYMATTR Value 10k
SYMBOL voltage 368 384 R90
WINDOW 0 -32 56 VBottom 2
WINDOW 3 32 56 VTop 2
WINDOW 123 0 0 Left 0
WINDOW 39 0 0 Left 0
SYMATTR InstName V2
SYMATTR Value 3.3
SYMBOL cap 688 192 R0
SYMATTR InstName C5
SYMATTR Value 470p
SYMBOL res 736 208 R0
SYMATTR InstName R7
SYMATTR Value 2.2k
SYMBOL res 880 320 R90
WINDOW 0 0 56 VBottom 2
WINDOW 3 32 56 VTop 2
SYMATTR InstName R8
SYMATTR Value 2.2k
SYMBOL res 1040 400 R90
WINDOW 0 0 56 VBottom 2
WINDOW 3 32 56 VTop 2
SYMATTR InstName R9
SYMATTR Value 22
SYMBOL res 1040 160 R90
WINDOW 0 0 56 VBottom 2
WINDOW 3 32 56 VTop 2
SYMATTR InstName R10
SYMATTR Value 22
SYMBOL cap 1088 320 R0
SYMATTR InstName C6
SYMATTR Value 100p
SYMBOL cap 1088 208 R0
SYMATTR InstName C7
SYMATTR Value 100p
SYMBOL cap 1184 256 R0
SYMATTR InstName C8
SYMATTR Value 10n
SYMBOL voltage 960 208 R0
WINDOW 123 0 0 Left 0
WINDOW 39 0 0 Left 0
SYMATTR InstName V3
SYMATTR Value 12
SYMBOL voltage 1072 576 R180
WINDOW 0 24 96 Left 2
WINDOW 3 24 16 Left 2
WINDOW 123 0 0 Left 0
WINDOW 39 0 0 Left 0
SYMATTR InstName V4
SYMATTR Value 12
SYMBOL Opamps\\ADA4661-2 816 240 M180
SYMATTR InstName U3
SYMBOL Opamps\\ADA4661-2 816 352 R0
SYMATTR InstName U4
SYMBOL res 528 272 R0
SYMATTR InstName R11
SYMATTR Value 100
TEXT 768 536 Left 2 !;ac dec 100 1 1MEG
TEXT 784 584 Left 2 !.tran 0.003
