Version 4
SHEET 1 1768 680
WIRE 864 -32 816 -32
WIRE 864 0 864 -32
WIRE 320 16 208 16
WIRE 816 16 816 -32
WIRE 208 48 208 16
WIRE 320 48 320 16
WIRE 880 48 624 48
WIRE 880 80 880 48
WIRE 880 80 768 80
WIRE 384 128 320 128
WIRE 544 128 544 48
WIRE 544 128 464 128
WIRE 624 128 544 128
WIRE 704 128 704 80
WIRE 736 128 704 128
WIRE 544 144 544 128
WIRE 816 144 816 96
WIRE 736 160 736 128
WIRE 784 160 736 160
WIRE 880 176 880 80
WIRE 880 176 848 176
WIRE 944 176 880 176
WIRE 1104 176 1024 176
WIRE 1296 176 1104 176
WIRE 784 192 736 192
WIRE 1104 208 1104 176
WIRE 816 240 816 208
WIRE 384 256 288 256
WIRE 544 256 544 208
WIRE 544 256 464 256
WIRE 624 256 544 256
WIRE 736 256 736 192
WIRE 736 256 704 256
WIRE 544 272 544 256
WIRE 1104 272 1104 256
WIRE 816 352 816 320
WIRE 288 368 288 336
WIRE 1104 368 1104 272
WIRE 544 384 544 352
WIRE 640 384 544 384
WIRE 736 384 736 320
WIRE 736 384 640 384
WIRE 640 400 640 384
FLAG 1104 368 0
FLAG 1296 176 vout
IOPIN 1296 176 Out
FLAG 816 352 0
FLAG 864 0 0
FLAG 640 400 0
FLAG 288 368 0
FLAG 208 48 0
SYMBOL voltage 320 144 R180
WINDOW 3 24 152 Left 2
WINDOW 123 24 124 Left 2
WINDOW 39 0 0 Left 0
SYMATTR InstName V1
SYMATTR Value SINE(0 2.48 1000)
SYMATTR Value2 AC 5
SYMBOL res 720 112 R90
WINDOW 0 0 56 VBottom 2
WINDOW 3 32 56 VTop 2
SYMATTR InstName R1
SYMATTR Value 68
SYMBOL res 480 112 R90
WINDOW 0 0 56 VBottom 2
WINDOW 3 32 56 VTop 2
SYMATTR InstName R2
SYMATTR Value 2200
SYMBOL res 640 32 R90
WINDOW 0 0 56 VBottom 2
WINDOW 3 32 56 VTop 2
SYMATTR InstName R3
SYMATTR Value 2200
SYMBOL cap 528 144 R0
SYMATTR InstName C2
SYMATTR Value 10n
SYMBOL res 1040 160 R90
WINDOW 0 0 56 VBottom 2
WINDOW 3 32 56 VTop 2
SYMATTR InstName R10
SYMATTR Value 100
SYMBOL cap 1088 208 R0
SYMATTR InstName C7
SYMATTR Value 1n
SYMBOL voltage 816 112 R180
WINDOW 123 0 0 Left 0
WINDOW 39 0 0 Left 0
SYMATTR InstName V3
SYMATTR Value 12
SYMBOL voltage 816 336 R180
WINDOW 0 24 96 Left 2
WINDOW 3 24 16 Left 2
WINDOW 123 0 0 Left 0
WINDOW 39 0 0 Left 0
SYMATTR InstName V4
SYMATTR Value 12
SYMBOL Opamps\\ADA4661-2 816 112 R0
SYMATTR InstName U3
SYMBOL res 480 240 R90
WINDOW 0 0 56 VBottom 2
WINDOW 3 32 56 VTop 2
SYMATTR InstName R11
SYMATTR Value 2200
SYMBOL res 720 240 R90
WINDOW 0 0 56 VBottom 2
WINDOW 3 32 56 VTop 2
SYMATTR InstName R4
SYMATTR Value 68
SYMBOL cap 720 256 R0
SYMATTR InstName C1
SYMATTR Value 1n
SYMBOL res 528 256 R0
SYMATTR InstName R5
SYMATTR Value 2200
SYMBOL cap 768 64 R90
WINDOW 0 0 32 VBottom 2
WINDOW 3 32 32 VTop 2
SYMATTR InstName C3
SYMATTR Value 1n
SYMBOL voltage 288 352 R180
WINDOW 0 24 96 Left 2
WINDOW 3 24 16 Left 2
WINDOW 123 24 -12 Left 2
WINDOW 39 0 0 Left 0
SYMATTR InstName V2
SYMATTR Value SINE(0 2.48 1000)
SYMATTR Value2 AC 5
TEXT 768 536 Left 2 !;ac dec 100 1 1MEG
TEXT 784 584 Left 2 !.tran 0.003
